!-Generator IDFEditor 1.51
!-Option SortedOrder

!-NOTE: All comments with '!-' are ignored by the IDFEditor and are generated automatically.
!-      Use '!' comments if they need to be retained when using the IDFEditor.


!-   ===========  ALL OBJECTS IN CLASS: VERSION ===========

!The DOE Prototype Building Models were developed by Pacific Northwest National Laboratory (PNNL), under contract with the U.S.
!Department of Energy (DOE).  These building models were derived from DOE's Commercial Reference Building Models with modifications
!based on input from the ASHRAE Standard 90.1 committee, the Advanced Energy Design Guide series, and building industry experts. The
!prototypes models were developed to quantify energy saving impacts from newly published editions of ASHRAE Standard 90.1, 189.1, IECC,
!and other energy codes and standards.  The basic building descriptions can be found in the Scorecards posted at www.energycodes.gov
!website. The recommended citation of the prototype models is
!
!DOE and PNNL. 2020. Commercial Prototype Building Models, Richland, WA, Pacific Northwest National Laboratory. Available at https://www.energycodes.gov/development/commercial/prototype_models.
!
!Detailed descriptions of the prototype model development and addenda modeling strategies can be found in the following  reports:
!DOE, 2020. Preliminary Energy Savings Analysis: ANSI/ASHRAE/IES Standard 90.1-2019. Report prepared by Zhang, J., M. Rosenberg, J.
!Lerond, Y. Xie, Nambia, C., Y. Chen, R. Hart, M. Halverson, D. Maddox, and S. Goel, Richland, WA, Pacific Northwest National Laboratory.
!
!Zhang, J., Y. Chen, Y. Xie, M. Rosenberg, R. Hart. Energy and Energy Cost Savings Analysis of the 2018 IECC for Commercial Buildings.
!2018. PNNL-28125. Richland, WA: Pacific Northwest National Laboratory.
!
!DOE. 2017. Energy Savings Analysis: ANSI/ASHRAE/IES Standard 90.1-2016. Prepared by Athalye, R.A, M.A. Halverson, M.I. Rosenberg, B. Liu,
!J. Zhang, R. Hart, V.V. Mendon, S. Goel, Y. Chen, Y. Xie, and M. Zhao, Richland, WA, Pacific Northwest National Laboratory. https://www.energycodes.gov/sites/default/files/documents/02202018_Standard_90.1-2016_Determination_TSD.pdf.
!
!Zhang, J., Y. Xie, R.A. Athalye, J. Zhuge, M. Rosenberg, R. Hart, and B. Liu. Energy and Energy Cost Savings Analysis of the 2015 IECC
!for Commercial Buildings. 2015. PNNL-24269 Rev. 1. Richland, WA: Pacific Northwest National
!Laboratory. https://www.energycodes.gov/sites/default/files/documents/2015_IECC_Commercial_Analysis.pdf.
!
!Halverson M.A., M.I. Rosenberg, W. Wang, J. Zhang, V.V. Mendon, R.A. Athalye, Y. Xie, R. Hart, S. Goel, 2014. ANSI/ASHRAE/IES Standard
!90.1-2013 Determination of Energy Savings: Quantitative Analysis, PNNL-23479. Richland, WA: Pacific Northwest National Laboratory. https://www.energycodes.gov/sites/default/files/documents/901-2013_finalCommercialDeterminationQuantitativeAnalysis_TSD_0.pdf.
!
!Goel S., R.A. Athalye, W. Wang, J. Zhang, M.I. Rosenberg, Y. Xie, and R. Hart, et al. 2014. Enhancements to ASHRAE Standard 90.1
!Prototype Building Models. PNNL-23269. Richland, WA: Pacific Northwest National Laboratory. https://www.pnnl.gov/main/publications/external/technical_reports/PNNL-23269.pdf.
!
!Zhang J., R.A. Athalye, R. Hart, M.I. Rosenberg, Y. Xie, S. Goel, and V.V. Mendon, et al. 2013. Energy and Energy Cost Savings Analysis
!of the IECC for Commercial Buildings. PNNL-22760. Richland, WA: Pacific Northwest National Laboratory. http://www.pnnl.gov/main/publications/external/technical_reports/PNNL-22760.pdf.
!
!Thornton B.A., M.I. Rosenberg, E.E. Richman, W. Wang, Y. Xie, J. Zhang, H. Cho, VV Mendon, R.A. Athalye, and B. Liu. 2011. Achieving
!the 30% Goal: Energy and Cost Savings Analysis of ASHRAE Standard 90.1-2010. PNNL-20405. Richland, WA: Pacific Northwest National
!Laboratory.  https://www.energycodes.gov/sites/default/files/documents/BECP_Energy_Cost_Savings_STD2010_May2011_v00.pdf.
!
!
! WeatherFile:  USA_GA_Atlanta-Hartsfield.Jackson.Intl.AP.722190_TMY3.epw
! BEGIN ECONOMIZER MAP
! Economizer Name, DX COIL Name
! PSZ-AC:1_OA_Controller, PSZ-AC:1 Heat Pump DX Cooling Coil
! PSZ-AC:2_OA_Controller, PSZ-AC:2 Heat Pump DX Cooling Coil
! PSZ-AC:3_OA_Controller, PSZ-AC:3 Heat Pump DX Cooling Coil
! PSZ-AC:4_OA_Controller, PSZ-AC:4 Heat Pump DX Cooling Coil
! PSZ-AC:5_OA_Controller, PSZ-AC:5 Heat Pump DX Cooling Coil
! END ECONOMIZER MAP
! GPARM parameters as input:
!    Case = ASHRAE901_OfficeSmall_STD2004_Atlanta
!    SelectedCase =
!    annual_run = yes
!    slab_gtp = National_OfficeSmall_ASHRAE901_STD2004_Zone3A_nonres_GA-Atlanta-GA.gtp
!    basement_tempt = dummy.idf
!    avg_oa_tempt_ip = 61.88
!    maxdiff_oa_tempt_ip = 40.5
!    ext_wall_type = WoodFramedWall
!    nonres_ext_wall_ufactor = 0.505365407
!    roof_type = WoodJoistAtticRoof
!    nonres_roof_ufactor = 0.193060942
!    roof_solar_absorp = 0.7
!    nonres_window =
!    sidelighting_control = no
!    economizer = NoEconomizer
!    skip_economizer_control = No
!    LPD_office = 10.76391042
!    exterior_lights_watts = 1582.575
!    exterior_lights_watts_a =
!    exterior_lights_watts_b =
!    avg_oa_tempt = 16.6
!    maxdiff_oa_tempt = 22.5
!    infil = 0.001024128
!    oa_flow_per_area = 0.000507968
!    door_infil = 0.129785425
!    frac_ofpk = 0.144
!    damper_sch = MinOA_Sched
!    economizer_lockout = LockoutWithCompressor
!    BLDG_EQUIP_SCH = BLDG_EQUIP_SCH_BASE
!    addendum_cd = no
!    pv_generator = no
!    pv_surface_area = 0
!    STD189_overhang = no
!    swh_et = 1
!    swh_ua = 1.870180469
!    ext_lgt_sch = Exterior_Lgt_ALWAYS_ON
!    LTG_SCH_SET = LTG_SET_STD2004
!    HtgSetP_Sch = HTGSETP_SCH_NO_OPTIMUM
!    CLGSETP_SCH = CLGSETP_SCH_NO_SETBACK
!    pipe_heat_loss = 572
!    skip_EMSprogram = yes
!    Wfile_TMY3 = USA_GA_Atlanta-Hartsfield.Jackson.Intl.AP.722190_TMY3.epw
!    loadProfile = No
!    receptacle_ctrl_occ_reduction_frac = 1
!    receptacle_ctrl_unocc_reduction_frac = 1
!    CodeName = ASHRAE90.1_STD2004
!    CZ_City_Old = Memphis
!    CZ_Label = 3A
!    exterior_lights_watts_c = 0
!    Addendum_AH = No
!    LPD_Ctrl = 0
!    con_swingdoor_r = 0.251572327
!    office_standby_mode =
!    nonres_window_u_factor = 1.22
!    nonres_window_shgc = 0.25
!    nonresLSG = 1
!    AnalysisPurpose = ProgressIndicator
!    AnalysisCodeName = ASHRAE901
!    AnalysisCodeYear = 2004
!    AnalysisAmendment = NoneAmend
!    AnalysisPrototype = OfficeSmall
!    AnalysisScope = National
!    AnalysisState = National
!    AnalysisClimateZone = 3A
!    AnalysisCity = USA_GA_Atlanta
!    var_Ffactor_IP = 0.73
!    var_Cfactor_IP = 1.14
!    Core_ZN_SWH_flow = 4.048e-06
!    VT_Elec_Wheater = No
! specify overhang_pf for 1891 codes
Version,
    9.3;                     !- Version Identifier


!-   ===========  ALL OBJECTS IN CLASS: SIMULATIONCONTROL ===========

SimulationControl,
    Yes,                     !- Do Zone Sizing Calculation
    Yes,                     !- Do System Sizing Calculation
    Yes,                     !- Do Plant Sizing Calculation
    No,                      !- Run Simulation for Sizing Periods
    YES;                     !- Run Simulation for Weather File Run Periods


!-   ===========  ALL OBJECTS IN CLASS: BUILDING ===========

Building,
    OfficeSmall,             !- Name
    0.0000,                  !- North Axis {deg}
    City,                    !- Terrain
    0.0400,                  !- Loads Convergence Tolerance Value {W}
    0.2000,                  !- Temperature Convergence Tolerance Value {deltaC}
    FullInteriorAndExterior, !- Solar Distribution
    25,                      !- Maximum Number of Warmup Days
    6;                       !- Minimum Number of Warmup Days


!-   ===========  ALL OBJECTS IN CLASS: SHADOWCALCULATION ===========

ShadowCalculation,
    PolygonClipping,         !- Shading Calculation Method
    Periodic,                !- Shading Calculation Update Frequency Method
    30,                      !- Shading Calculation Update Frequency
    15000;                   !- Maximum Figures in Shadow Overlap Calculations


!-   ===========  ALL OBJECTS IN CLASS: SURFACECONVECTIONALGORITHM:INSIDE ===========

SurfaceConvectionAlgorithm:Inside,
    TARP;                    !- Algorithm


!-   ===========  ALL OBJECTS IN CLASS: SURFACECONVECTIONALGORITHM:OUTSIDE ===========

SurfaceConvectionAlgorithm:Outside,
    TARP;                    !- Algorithm


!-   ===========  ALL OBJECTS IN CLASS: HEATBALANCEALGORITHM ===========

HeatBalanceAlgorithm,
    ConductionTransferFunction,  !- Algorithm
    200.0000;                !- Surface Temperature Upper Limit {C}


!-   ===========  ALL OBJECTS IN CLASS: ZONECAPACITANCEMULTIPLIER:RESEARCHSPECIAL ===========

ZoneCapacitanceMultiplier:ResearchSpecial,
    ZoneCap_ZN_1,            !- Name
    Perimeter_ZN_1,          !- Zone or ZoneList Name
    8,                       !- Temperature Capacity Multiplier
    1,                       !- Humidity Capacity Multiplier
    1,                       !- Carbon Dioxide Capacity Multiplier
    1;                       !- Generic Contaminant Capacity Multiplier


!-   ===========  ALL OBJECTS IN CLASS: TIMESTEP ===========

Timestep,
    60;                      !- Number of Timesteps per Hour


!-   ===========  ALL OBJECTS IN CLASS: CONVERGENCELIMITS ===========

ConvergenceLimits,
    1,                       !- Minimum System Timestep {minutes}
    20;                      !- Maximum HVAC Iterations


!-   ===========  ALL OBJECTS IN CLASS: SITE:LOCATION ===========

! Site:Location and design-day objects created by:
! ../../_p.bin/ddy2idf /projects/bigsim/weather/EnergyPlus/tmy3.new/all/USA_GA_Atlanta-Hartsfield.Jackson.Intl.AP.722190_TMY3.ddy
!
Site:Location,
    Atlanta-Hartsfield.Jackson.Intl.AP_GA_USA WMO=722190,  !- Name
    33.64,                   !- Latitude {deg}
    -84.43,                  !- Longitude {deg}
    -5.00,                   !- Time Zone {hr}
    313.00;                  !- Elevation {m}


!-   ===========  ALL OBJECTS IN CLASS: SIZINGPERIOD:DESIGNDAY ===========

SizingPeriod:DesignDay,
    Atlanta-Hartsfield.Jackson.Intl.AP_GA_USA Ann Htg 99.6% Condns DB,  !- Name
    1,                       !- Month
    21,                      !- Day of Month
    WinterDesignDay,         !- Day Type
    -6.3,                    !- Maximum Dry-Bulb Temperature {C}
    0.0,                     !- Daily Dry-Bulb Temperature Range {deltaC}
    DefaultMultipliers,      !- Dry-Bulb Temperature Range Modifier Type
    ,                        !- Dry-Bulb Temperature Range Modifier Day Schedule Name
    Wetbulb,                 !- Humidity Condition Type
    -6.3,                    !- Wetbulb or DewPoint at Maximum Dry-Bulb {C}
    ,                        !- Humidity Condition Day Schedule Name
    ,                        !- Humidity Ratio at Maximum Dry-Bulb {kgWater/kgDryAir}
    ,                        !- Enthalpy at Maximum Dry-Bulb {J/kg}
    ,                        !- Daily Wet-Bulb Temperature Range {deltaC}
    97621.,                  !- Barometric Pressure {Pa}
    5.3,                     !- Wind Speed {m/s}
    320,                     !- Wind Direction {deg}
    No,                      !- Rain Indicator
    No,                      !- Snow Indicator
    No,                      !- Daylight Saving Time Indicator
    ASHRAEClearSky,          !- Solar Model Indicator
    ,                        !- Beam Solar Day Schedule Name
    ,                        !- Diffuse Solar Day Schedule Name
    ,                        !- ASHRAE Clear Sky Optical Depth for Beam Irradiance (taub) {dimensionless}
    ,                        !- ASHRAE Clear Sky Optical Depth for Diffuse Irradiance (taud) {dimensionless}
    0.00;                    !- Sky Clearness

SizingPeriod:DesignDay,
    Atlanta-Hartsfield.Jackson.Intl.AP_GA_USA Ann Clg .4% Condns DB=>MWB,  !- Name
    7,                       !- Month
    21,                      !- Day of Month
    SummerDesignDay,         !- Day Type
    34.4,                    !- Maximum Dry-Bulb Temperature {C}
    9.5,                     !- Daily Dry-Bulb Temperature Range {deltaC}
    DefaultMultipliers,      !- Dry-Bulb Temperature Range Modifier Type
    ,                        !- Dry-Bulb Temperature Range Modifier Day Schedule Name
    Wetbulb,                 !- Humidity Condition Type
    23.5,                    !- Wetbulb or DewPoint at Maximum Dry-Bulb {C}
    ,                        !- Humidity Condition Day Schedule Name
    ,                        !- Humidity Ratio at Maximum Dry-Bulb {kgWater/kgDryAir}
    ,                        !- Enthalpy at Maximum Dry-Bulb {J/kg}
    ,                        !- Daily Wet-Bulb Temperature Range {deltaC}
    97621.,                  !- Barometric Pressure {Pa}
    4,                       !- Wind Speed {m/s}
    300,                     !- Wind Direction {deg}
    No,                      !- Rain Indicator
    No,                      !- Snow Indicator
    No,                      !- Daylight Saving Time Indicator
    ASHRAETau,               !- Solar Model Indicator
    ,                        !- Beam Solar Day Schedule Name
    ,                        !- Diffuse Solar Day Schedule Name
    0.556,                   !- ASHRAE Clear Sky Optical Depth for Beam Irradiance (taub) {dimensionless}
    1.779;                   !- ASHRAE Clear Sky Optical Depth for Diffuse Irradiance (taud) {dimensionless}


!-   ===========  ALL OBJECTS IN CLASS: RUNPERIOD ===========

RunPeriod,
    RUNPERIOD 1,             !- Name
    1,                       !- Begin Month
    1,                       !- Begin Day of Month
    ,                        !- Begin Year
    1,                       !- End Month
    31,                      !- End Day of Month
    ,                        !- End Year
    Thursday,                !- Day of Week for Start Day
    No,                      !- Use Weather File Holidays and Special Days
    No,                      !- Use Weather File Daylight Saving Period
    No,                      !- Apply Weekend Holiday Rule
    Yes,                     !- Use Weather File Rain Indicators
    Yes;                     !- Use Weather File Snow Indicators


!-   ===========  ALL OBJECTS IN CLASS: RUNPERIODCONTROL:SPECIALDAYS ===========

RunPeriodControl:SpecialDays,
    New Years Day,           !- Name
    January 1,               !- Start Date
    1,                       !- Duration {days}
    Holiday;                 !- Special Day Type

RunPeriodControl:SpecialDays,
    Veterans Day,            !- Name
    November 11,             !- Start Date
    1,                       !- Duration {days}
    Holiday;                 !- Special Day Type

RunPeriodControl:SpecialDays,
    Christmas,               !- Name
    December 25,             !- Start Date
    1,                       !- Duration {days}
    Holiday;                 !- Special Day Type

RunPeriodControl:SpecialDays,
    Independence Day,        !- Name
    July 4,                  !- Start Date
    1,                       !- Duration {days}
    Holiday;                 !- Special Day Type

RunPeriodControl:SpecialDays,
    MLK Day,                 !- Name
    3rd Monday in January,   !- Start Date
    1,                       !- Duration {days}
    Holiday;                 !- Special Day Type

RunPeriodControl:SpecialDays,
    Presidents Day,          !- Name
    3rd Monday in February,  !- Start Date
    1,                       !- Duration {days}
    Holiday;                 !- Special Day Type

RunPeriodControl:SpecialDays,
    Memorial Day,            !- Name
    Last Monday in May,      !- Start Date
    1,                       !- Duration {days}
    Holiday;                 !- Special Day Type

RunPeriodControl:SpecialDays,
    Labor Day,               !- Name
    1st Monday in September, !- Start Date
    1,                       !- Duration {days}
    Holiday;                 !- Special Day Type

RunPeriodControl:SpecialDays,
    Columbus Day,            !- Name
    2nd Monday in October,   !- Start Date
    1,                       !- Duration {days}
    Holiday;                 !- Special Day Type

RunPeriodControl:SpecialDays,
    Thanksgiving,            !- Name
    4th Thursday in November,!- Start Date
    1,                       !- Duration {days}
    Holiday;                 !- Special Day Type


!-   ===========  ALL OBJECTS IN CLASS: RUNPERIODCONTROL:DAYLIGHTSAVINGTIME ===========

RunPeriodControl:DaylightSavingTime,
    2nd Sunday in March,     !- Start Date
    1st Sunday in November;  !- End Date


!-   ===========  ALL OBJECTS IN CLASS: SITE:GROUNDTEMPERATURE:FCFACTORMETHOD ===========

Site:GroundTemperature:FCfactorMethod,
    16.0,                    !- January Ground Temperature {C}
    11.9,                    !- February Ground Temperature {C}
    7.7,                     !- March Ground Temperature {C}
    4.0,                     !- April Ground Temperature {C}
    7.9,                     !- May Ground Temperature {C}
    13.8,                    !- June Ground Temperature {C}
    17.2,                    !- July Ground Temperature {C}
    20.8,                    !- August Ground Temperature {C}
    24.8,                    !- September Ground Temperature {C}
    26.1,                    !- October Ground Temperature {C}
    26.5,                    !- November Ground Temperature {C}
    22.5;                    !- December Ground Temperature {C}


!-   ===========  ALL OBJECTS IN CLASS: SITE:WATERMAINSTEMPERATURE ===========

Site:WaterMainsTemperature,
    Correlation,             !- Calculation Method
    ,                        !- Temperature Schedule Name
    16.6,                    !- Annual Average Outdoor Air Temperature {C}
    22.5;                    !- Maximum Difference In Monthly Average Outdoor Air Temperatures {deltaC}


!-   ===========  ALL OBJECTS IN CLASS: SCHEDULETYPELIMITS ===========

ScheduleTypeLimits,
    Any Number;              !- Name

ScheduleTypeLimits,
    Fraction,                !- Name
    0.0,                     !- Lower Limit Value
    1.0,                     !- Upper Limit Value
    CONTINUOUS;              !- Numeric Type

ScheduleTypeLimits,
    Temperature,             !- Name
    -60,                     !- Lower Limit Value
    200,                     !- Upper Limit Value
    CONTINUOUS;              !- Numeric Type

ScheduleTypeLimits,
    On/Off,                  !- Name
    0,                       !- Lower Limit Value
    1,                       !- Upper Limit Value
    DISCRETE;                !- Numeric Type

ScheduleTypeLimits,
    Control Type,            !- Name
    0,                       !- Lower Limit Value
    4,                       !- Upper Limit Value
    DISCRETE;                !- Numeric Type

ScheduleTypeLimits,
    Humidity,                !- Name
    10,                      !- Lower Limit Value
    90,                      !- Upper Limit Value
    CONTINUOUS;              !- Numeric Type

ScheduleTypeLimits,
    Number;                  !- Name


!-   ===========  ALL OBJECTS IN CLASS: SCHEDULE:COMPACT ===========

Schedule:Compact,
    BLDG_LIGHT_SCH,          !- Name
    Fraction,                !- Schedule Type Limits Name
    Through: 12/31,          !- Field 1
    For: Weekdays,           !- Field 2
    Until: 5:00,             !- Field 3
    0.18,                    !- Field 4
    Until: 7:00,             !- Field 5
    0.23,                    !- Field 6
    Until: 8:00,             !- Field 7
    0.42,                    !- Field 8
    Until: 12:00,            !- Field 9
    0.9,                     !- Field 10
    Until: 13:00,            !- Field 11
    0.8,                     !- Field 12
    Until: 17:00,            !- Field 13
    0.9,                     !- Field 14
    Until: 18:00,            !- Field 15
    0.61,                    !- Field 16
    Until: 20:00,            !- Field 17
    0.42,                    !- Field 18
    Until: 22:00,            !- Field 19
    0.32,                    !- Field 20
    Until: 23:00,            !- Field 21
    0.23,                    !- Field 22
    Until: 24:00,            !- Field 23
    0.18,                    !- Field 24
    For: Weekends,           !- Field 25
    Until: 24:00,            !- Field 26
    0.18,                    !- Field 27
    For: Holiday,            !- Field 28
    Until: 24:00,            !- Field 29
    0.18,                    !- Field 30
    For: WinterDesignDay,    !- Field 31
    Until: 24:00,            !- Field 32
    0,                       !- Field 33
    For: SummerDesignDay,    !- Field 34
    Until: 24:00,            !- Field 35
    1,                       !- Field 36
    For: CustomDay1,         !- Field 37
    Until: 24:00,            !- Field 38
    0,                       !- Field 39
    For: CustomDay2,         !- Field 40
    Until: 24:00,            !- Field 41
    0;                       !- Field 42

Schedule:Compact,
    BLDG_EQUIP_SCH,          !- Name
    Fraction,                !- Schedule Type Limits Name
    Through: 12/31,          !- Field 1
    For: WeekDays,           !- Field 2
    Until: 6:00,             !- Field 3
    0.5,                     !- Field 4
    Until: 8:00,             !- Field 5
    0.5,                     !- Field 6
    Until: 12:00,            !- Field 7
    1,                       !- Field 8
    Until: 13:00,            !- Field 9
    0.94,                    !- Field 10
    Until: 17:00,            !- Field 11
    1,                       !- Field 12
    Until: 18:00,            !- Field 13
    0.5,                     !- Field 14
    Until: 23:00,            !- Field 15
    0.2,                     !- Field 16
    Until: 24:00,            !- Field 17
    0.2,                     !- Field 18
    For: Weekends,           !- Field 19
    Until: 24:00,            !- Field 20
    0.2,                     !- Field 21
    For: Holiday,            !- Field 22
    Until: 24:00,            !- Field 23
    0.2,                     !- Field 24
    For: WinterDesignDay,    !- Field 25
    Until: 24:00,            !- Field 26
    0.0,                     !- Field 27
    For: SummerDesignDay,    !- Field 28
    Until: 24:00,            !- Field 29
    1.0,                     !- Field 30
    For: CustomDay1,         !- Field 31
    Until: 24:00,            !- Field 32
    0.0,                     !- Field 33
    For: CustomDay2,         !- Field 34
    Until: 24:00,            !- Field 35
    0.0;                     !- Field 36

Schedule:Compact,
    BLDG_OCC_SCH,            !- Name
    Fraction,                !- Schedule Type Limits Name
    Through: 12/31,          !- Field 1
    For: Weekdays,           !- Field 2
    Until: 6:00,             !- Field 3
    0.0,                     !- Field 4
    Until: 7:00,             !- Field 5
    0.11,                    !- Field 6
    Until: 8:00,             !- Field 7
    0.21,                    !- Field 8
    Until: 12:00,            !- Field 9
    1.0,                     !- Field 10
    Until: 13:00,            !- Field 11
    0.53,                    !- Field 12
    Until: 17:00,            !- Field 13
    1.0,                     !- Field 14
    Until: 18:00,            !- Field 15
    0.32,                    !- Field 16
    Until: 22:00,            !- Field 17
    0.11,                    !- Field 18
    Until: 23:00,            !- Field 19
    0.05,                    !- Field 20
    Until: 24:00,            !- Field 21
    0.0,                     !- Field 22
    For: Weekends,           !- Field 23
    Until: 24:00,            !- Field 24
    0.0,                     !- Field 25
    For: Holiday,            !- Field 26
    Until: 24:00,            !- Field 27
    0.0,                     !- Field 28
    For: WinterDesignDay,    !- Field 29
    Until: 24:00,            !- Field 30
    0.0,                     !- Field 31
    For: SummerDesignDay,    !- Field 32
    Until: 24:00,            !- Field 33
    1.0,                     !- Field 34
    For: CustomDay1,         !- Field 35
    Until: 24:00,            !- Field 36
    0.0,                     !- Field 37
    For: CustomDay2,         !- Field 38
    Until: 24:00,            !- Field 39
    0.0;                     !- Field 40

Schedule:Compact,
    BLDG_OCC_SCH_w_SB,       !- Name
    Fraction,                !- Schedule Type Limits Name
    Through: 12/31,          !- Field 1
    For: Weekdays,           !- Field 2
    Until: 01:00,            !- Field 3
    0,                       !- Field 4
    Until: 02:00,            !- Field 5
    0,                       !- Field 6
    Until: 03:00,            !- Field 7
    0,                       !- Field 8
    Until: 04:00,            !- Field 9
    0,                       !- Field 10
    Until: 05:00,            !- Field 11
    0,                       !- Field 12
    Until: 06:00,            !- Field 13
    0,                       !- Field 14
    Until: 07:00,            !- Field 15
    0.11,                    !- Field 16
    Until: 08:00,            !- Field 17
    0.21,                    !- Field 18
    Until: 09:00,            !- Field 19
    1,                       !- Field 20
    Until: 10:00,            !- Field 21
    1,                       !- Field 22
    Until: 11:00,            !- Field 23
    0,                       !- Field 24
    Until: 12:00,            !- Field 25
    1,                       !- Field 26
    Until: 13:00,            !- Field 27
    0,                       !- Field 28
    Until: 14:00,            !- Field 29
    1,                       !- Field 30
    Until: 15:00,            !- Field 31
    0,                       !- Field 32
    Until: 16:00,            !- Field 33
    1,                       !- Field 34
    Until: 17:00,            !- Field 35
    1,                       !- Field 36
    Until: 18:00,            !- Field 37
    0.32,                    !- Field 38
    Until: 19:00,            !- Field 39
    0.11,                    !- Field 40
    Until: 20:00,            !- Field 41
    0.11,                    !- Field 42
    Until: 21:00,            !- Field 43
    0.11,                    !- Field 44
    Until: 22:00,            !- Field 45
    0.11,                    !- Field 46
    Until: 23:00,            !- Field 47
    0.05,                    !- Field 48
    Until: 24:00,            !- Field 49
    0,                       !- Field 50
    For: Weekends,           !- Field 51
    Until: 01:00,            !- Field 52
    0,                       !- Field 53
    Until: 02:00,            !- Field 54
    0,                       !- Field 55
    Until: 03:00,            !- Field 56
    0,                       !- Field 57
    Until: 04:00,            !- Field 58
    0,                       !- Field 59
    Until: 05:00,            !- Field 60
    0,                       !- Field 61
    Until: 06:00,            !- Field 62
    0,                       !- Field 63
    Until: 07:00,            !- Field 64
    0,                       !- Field 65
    Until: 08:00,            !- Field 66
    0,                       !- Field 67
    Until: 09:00,            !- Field 68
    0,                       !- Field 69
    Until: 10:00,            !- Field 70
    0,                       !- Field 71
    Until: 11:00,            !- Field 72
    0,                       !- Field 73
    Until: 12:00,            !- Field 74
    0,                       !- Field 75
    Until: 13:00,            !- Field 76
    0,                       !- Field 77
    Until: 14:00,            !- Field 78
    0,                       !- Field 79
    Until: 15:00,            !- Field 80
    0,                       !- Field 81
    Until: 16:00,            !- Field 82
    0,                       !- Field 83
    Until: 17:00,            !- Field 84
    0,                       !- Field 85
    Until: 18:00,            !- Field 86
    0,                       !- Field 87
    Until: 19:00,            !- Field 88
    0,                       !- Field 89
    Until: 20:00,            !- Field 90
    0,                       !- Field 91
    Until: 21:00,            !- Field 92
    0,                       !- Field 93
    Until: 22:00,            !- Field 94
    0,                       !- Field 95
    Until: 23:00,            !- Field 96
    0,                       !- Field 97
    Until: 24:00,            !- Field 98
    0,                       !- Field 99
    For: Holiday,            !- Field 100
    Until: 24:00,            !- Field 101
    0.0,                     !- Field 102
    For: WinterDesignDay,    !- Field 103
    Until: 24:00,            !- Field 104
    0.0,                     !- Field 105
    For: SummerDesignDay,    !- Field 106
    Until: 24:00,            !- Field 107
    1.0,                     !- Field 108
    For: CustomDay1,         !- Field 109
    Until: 24:00,            !- Field 110
    0.0,                     !- Field 111
    For: CustomDay2,         !- Field 112
    Until: 24:00,            !- Field 113
    0.0;                     !- Field 114

Schedule:Compact,
    BLDG_OCC_SCH_wo_SB,      !- Name
    Fraction,                !- Schedule Type Limits Name
    Through: 12/31,          !- Field 1
    For: Weekdays,           !- Field 2
    Until: 01:00,            !- Field 3
    0,                       !- Field 4
    Until: 02:00,            !- Field 5
    0,                       !- Field 6
    Until: 03:00,            !- Field 7
    0,                       !- Field 8
    Until: 04:00,            !- Field 9
    0,                       !- Field 10
    Until: 05:00,            !- Field 11
    0,                       !- Field 12
    Until: 06:00,            !- Field 13
    0,                       !- Field 14
    Until: 07:00,            !- Field 15
    0.11,                    !- Field 16
    Until: 08:00,            !- Field 17
    0.21,                    !- Field 18
    Until: 09:00,            !- Field 19